
OS:Version,
  {b6cbc929-408d-4a4b-899f-54753a814a22}, !- Handle
  3.8.0;                                  !- Version Identifier

OS:Building,
  {d4b9cc25-8f2e-4369-979f-b48a03309248}, !- Handle
  475_avenue Michel-Jasmin (DVL)_325321_Y_1958_low, !- Name
  ,                                       !- Building Sector Type
  0,                                      !- North Axis {deg}
  ,                                       !- Nominal Floor to Floor Height {m}
  ,                                       !- Space Type Name
  {8c10b0db-a3a9-4416-a716-c99a07b12cb7}, !- Default Construction Set Name
  ,                                       !- Default Schedule Set Name
  ,                                       !- Standards Number of Stories
  ,                                       !- Standards Number of Above Ground Stories
  ,                                       !- Standards Template
  MediumOffice;                           !- Standards Building Type

OS:Facility,
  {e4d09583-93a8-4b73-9ef2-57fea33ec9dc}; !- Handle

OS:Site,
  {f8a7c7a5-8b60-4c1c-9466-30fc005a471e}, !- Handle
  Montreal Int'l,                         !- Name
  45.47,                                  !- Latitude {deg}
  -73.75,                                 !- Longitude {deg}
  -5,                                     !- Time Zone {hr}
  36,                                     !- Elevation {m}
  City;                                   !- Terrain

OS:SimulationControl,
  {b2ee3119-8398-45bf-ae23-47cf83175284}, !- Handle
  Yes,                                    !- Do Zone Sizing Calculation
  Yes,                                    !- Do System Sizing Calculation
  Yes,                                    !- Do Plant Sizing Calculation
  No,                                     !- Run Simulation for Sizing Periods
  Yes,                                    !- Run Simulation for Weather File Run Periods
  ,                                       !- Loads Convergence Tolerance Value {W}
  ,                                       !- Temperature Convergence Tolerance Value {deltaC}
  FullExteriorWithReflections;            !- Solar Distribution

OS:Sizing:Parameters,
  {bc830e34-2ee8-455e-922c-5a54c0c45918}, !- Handle
  1.25,                                   !- Heating Sizing Factor
  1.15,                                   !- Cooling Sizing Factor
  ;                                       !- Timesteps in Averaging Window

OS:Timestep,
  {6dbf2956-7369-46e1-a346-a8e1ac069eb7}, !- Handle
  6;                                      !- Number of Timesteps per Hour

OS:ShadowCalculation,
  {670cf017-2a2d-472e-b78c-7824ec81a334}, !- Handle
  PolygonClipping,                        !- Shading Calculation Method
  Periodic,                               !- Shading Calculation Update Frequency Method
  30,                                     !- Shading Calculation Update Frequency
  15000,                                  !- Maximum Figures in Shadow Overlap Calculations
  ,                                       !- Polygon Clipping Algorithm
  512,                                    !- Pixel Counting Resolution
  ,                                       !- Sky Diffuse Modeling Algorithm
  No,                                     !- Output External Shading Calculation Results
  No,                                     !- Disable Self-Shading Within Shading Zone Groups
  No;                                     !- Disable Self-Shading From Shading Zone Groups to Other Zones

OS:HeatBalanceAlgorithm,
  {e23878fe-4342-440e-94ee-55a6ce0d85a7}, !- Handle
  ConductionTransferFunction,             !- Algorithm
  200;                                    !- Surface Temperature Upper Limit {C}

OS:RunPeriod,
  {3b5bf6aa-9730-4d2a-9332-4cec66591279}, !- Handle
  Run Period 1,                           !- Name
  1,                                      !- Begin Month
  1,                                      !- Begin Day of Month
  12,                                     !- End Month
  31,                                     !- End Day of Month
  ,                                       !- Use Weather File Holidays and Special Days
  ,                                       !- Use Weather File Daylight Saving Period
  ,                                       !- Apply Weekend Holiday Rule
  ,                                       !- Use Weather File Rain Indicators
  ,                                       !- Use Weather File Snow Indicators
  ;                                       !- Number of Times Runperiod to be Repeated

OS:LifeCycleCost:Parameters,
  {887e5e92-ea69-4e92-aac3-20080e243aa2}, !- Handle
  ,                                       !- Analysis Type
  ,                                       !- Discounting Convention
  ,                                       !- Inflation Approach
  ,                                       !- Real Discount Rate
  ,                                       !- Nominal Discount Rate
  ,                                       !- Inflation
  ,                                       !- Base Date Month
  ,                                       !- Base Date Year
  ,                                       !- Service Date Month
  ,                                       !- Service Date Year
  ;                                       !- Length of Study Period in Years

OS:Site:WaterMainsTemperature,
  {52c80a47-a09e-44f7-8392-39ff6d581dc7}, !- Handle
  CorrelationFromWeatherFile;             !- Calculation Method

OS:ClimateZones,
  {7953dd6f-4d8a-48a8-9352-2e02bb667750}, !- Handle
  ASHRAE,                                 !- Climate Zone Institution Name 1
  ANSI/ASHRAE Standard 169,               !- Climate Zone Document Name 1
  2006,                                   !- Climate Zone Document Year 1
  6A,                                     !- Climate Zone Value 1
  CEC,                                    !- Climate Zone Institution Name 2
  California Climate Zone Descriptions,   !- Climate Zone Document Name 2
  1995,                                   !- Climate Zone Document Year 2
  ;                                       !- Climate Zone Value 2

OS:OutputControl:ReportingTolerances,
  {f9846093-8333-4ece-a6da-944660d915c6}, !- Handle
  1.11,                                   !- Tolerance for Time Heating Setpoint Not Met {deltaC}
  1.11;                                   !- Tolerance for Time Cooling Setpoint Not Met {deltaC}

OS:Output:Variable,
  {762dd339-6a8d-45ca-8167-95ac18fcd5a0}, !- Handle
  Output Variable 1,                      !- Name
  ,                                       !- Key Value
  Baseboard Electricity Energy,           !- Variable Name
  Hourly;                                 !- Reporting Frequency

OS:Output:Variable,
  {c5f0fbf9-97da-42b9-ba91-db3c66dec945}, !- Handle
  Output Variable 2,                      !- Name
  ,                                       !- Key Value
  Boiler Electricity Energy,              !- Variable Name
  Hourly;                                 !- Reporting Frequency

OS:Output:Variable,
  {0a2b1cc2-974e-460a-a1c0-88df23529e16}, !- Handle
  Output Variable 3,                      !- Name
  ,                                       !- Key Value
  Boiler NaturalGas Energy,               !- Variable Name
  Hourly;                                 !- Reporting Frequency

OS:Output:Variable,
  {246f3a4b-335f-4995-a223-da4f70e282b4}, !- Handle
  Output Variable 4,                      !- Name
  ,                                       !- Key Value
  Chiller Electricity Energy,             !- Variable Name
  Hourly;                                 !- Reporting Frequency

OS:Output:Variable,
  {3731ed33-0917-47bc-a0df-63a4701fa114}, !- Handle
  Output Variable 5,                      !- Name
  ,                                       !- Key Value
  Chiller Heater System Cooling Electricity Energy, !- Variable Name
  Hourly;                                 !- Reporting Frequency

OS:Output:Variable,
  {736c3f42-281c-40a6-9cc0-527341b3ae5a}, !- Handle
  Output Variable 6,                      !- Name
  ,                                       !- Key Value
  Chiller Heater System Heating Electricity Energy, !- Variable Name
  Hourly;                                 !- Reporting Frequency

OS:Output:Variable,
  {bd2e7c0c-3b0e-47a1-bce0-8ad71a656d0d}, !- Handle
  Output Variable 7,                      !- Name
  ,                                       !- Key Value
  Cooling Coil Electricity Energy,        !- Variable Name
  Hourly;                                 !- Reporting Frequency

OS:Output:Variable,
  {bc73232e-d3e9-4ace-b7f1-453a2594f1fb}, !- Handle
  Output Variable 8,                      !- Name
  ,                                       !- Key Value
  Cooling Coil Water Heating Electricity Energy, !- Variable Name
  Hourly;                                 !- Reporting Frequency

OS:Output:Variable,
  {1e8a0f2b-dc85-4692-b17c-7b1e2f234e77}, !- Handle
  Output Variable 9,                      !- Name
  ,                                       !- Key Value
  Cooling Tower Fan Electricity Energy,   !- Variable Name
  Hourly;                                 !- Reporting Frequency

OS:Output:Variable,
  {0ee028d0-1893-4159-be86-ed37a506b267}, !- Handle
  Output Variable 10,                     !- Name
  ,                                       !- Key Value
  District Cooling Chilled Water Energy,  !- Variable Name
  Hourly;                                 !- Reporting Frequency

OS:Output:Variable,
  {8cd5e816-ea9b-4110-9342-b9a6637595a7}, !- Handle
  Output Variable 11,                     !- Name
  ,                                       !- Key Value
  District Heating Hot Water Energy,      !- Variable Name
  Hourly;                                 !- Reporting Frequency

OS:Output:Variable,
  {fc883ada-f40d-4a7c-8aee-62d0ee233226}, !- Handle
  Output Variable 12,                     !- Name
  ,                                       !- Key Value
  Evaporative Cooler Electricity Energy,  !- Variable Name
  Hourly;                                 !- Reporting Frequency

OS:Output:Variable,
  {01ed45d5-9971-4276-a3ed-e1d633f17273}, !- Handle
  Output Variable 13,                     !- Name
  ,                                       !- Key Value
  Fan Electricity Energy,                 !- Variable Name
  Hourly;                                 !- Reporting Frequency

OS:Output:Variable,
  {1bcbf405-c5e4-4b0c-bdfe-9017e18f0d7e}, !- Handle
  Output Variable 14,                     !- Name
  ,                                       !- Key Value
  Heating Coil Electricity Energy,        !- Variable Name
  Hourly;                                 !- Reporting Frequency

OS:Output:Variable,
  {c022c8d7-3e2b-4dc8-9a00-c678b333289c}, !- Handle
  Output Variable 15,                     !- Name
  ,                                       !- Key Value
  Heating Coil NaturalGas Energy,         !- Variable Name
  Hourly;                                 !- Reporting Frequency

OS:Output:Variable,
  {ff3aa9aa-6308-4626-abcf-af698ec594a1}, !- Handle
  Output Variable 16,                     !- Name
  ,                                       !- Key Value
  Heating Coil Total Heating Energy,      !- Variable Name
  Hourly;                                 !- Reporting Frequency

OS:Output:Variable,
  {0307bcb4-638d-44f1-a70b-42d49c5d3c46}, !- Handle
  Output Variable 17,                     !- Name
  ,                                       !- Key Value
  Hot_Water_Loop_Central_Air_Source_Heat_Pump Electricity Consumption, !- Variable Name
  Hourly;                                 !- Reporting Frequency

OS:Output:Variable,
  {da88a06e-a8ff-4b7b-b41e-7b99c752a7c5}, !- Handle
  Output Variable 18,                     !- Name
  ,                                       !- Key Value
  Humidifier Electricity Energy,          !- Variable Name
  Hourly;                                 !- Reporting Frequency

OS:Output:Variable,
  {936ffa6e-d432-4318-880a-12e0dd4f0271}, !- Handle
  Output Variable 19,                     !- Name
  ,                                       !- Key Value
  Pump Electricity Energy,                !- Variable Name
  Hourly;                                 !- Reporting Frequency

OS:Output:Variable,
  {9f88cf9a-3de6-49fa-b35b-758aa79428db}, !- Handle
  Output Variable 20,                     !- Name
  ,                                       !- Key Value
  VRF Heat Pump Cooling Electricity Energy, !- Variable Name
  Hourly;                                 !- Reporting Frequency

OS:Output:Variable,
  {69738fca-3129-483f-9a1d-5b7a2b0e5638}, !- Handle
  Output Variable 21,                     !- Name
  ,                                       !- Key Value
  VRF Heat Pump Crankcase Heater Electricity Energy, !- Variable Name
  Hourly;                                 !- Reporting Frequency

OS:Output:Variable,
  {f8678ea5-1735-4c1d-a5b8-abadafb05075}, !- Handle
  Output Variable 22,                     !- Name
  ,                                       !- Key Value
  VRF Heat Pump Defrost Electricity Energy, !- Variable Name
  Hourly;                                 !- Reporting Frequency

OS:Output:Variable,
  {83231491-0238-4b1d-bec1-4272a842c68f}, !- Handle
  Output Variable 23,                     !- Name
  ,                                       !- Key Value
  VRF Heat Pump Heating Electricity Energy, !- Variable Name
  Hourly;                                 !- Reporting Frequency

OS:Output:Variable,
  {56773400-c9e0-4bbc-939d-ff85db63a282}, !- Handle
  Output Variable 24,                     !- Name
  ,                                       !- Key Value
  Water Heater Electricity Energy,        !- Variable Name
  Hourly;                                 !- Reporting Frequency

OS:Output:Variable,
  {e2d66e68-23ef-471e-9ea0-f3ed86f99974}, !- Handle
  Output Variable 25,                     !- Name
  ,                                       !- Key Value
  Water Heater NaturalGas Energy,         !- Variable Name
  Hourly;                                 !- Reporting Frequency

OS:Output:Variable,
  {a7ce0998-5074-4d30-92c6-149ac416d49b}, !- Handle
  Output Variable 26,                     !- Name
  ,                                       !- Key Value
  Water Use Equipment Heating Energy,     !- Variable Name
  Hourly;                                 !- Reporting Frequency

OS:Output:Variable,
  {745d835c-bec0-4581-95d6-beed3d00a9c4}, !- Handle
  Output Variable 27,                     !- Name
  ,                                       !- Key Value
  Zone Electric Equipment Electricity Energy, !- Variable Name
  Hourly;                                 !- Reporting Frequency

OS:Output:Variable,
  {58da3b9b-4ee8-482d-a255-dec505b1c0c6}, !- Handle
  Output Variable 28,                     !- Name
  ,                                       !- Key Value
  Zone Gas Equipment NaturalGas Energy,   !- Variable Name
  Hourly;                                 !- Reporting Frequency

OS:Output:Variable,
  {82132f95-6176-4d37-ac16-b7b56979890c}, !- Handle
  Output Variable 29,                     !- Name
  ,                                       !- Key Value
  Zone Ideal Loads Supply Air Total Cooling Energy, !- Variable Name
  Hourly;                                 !- Reporting Frequency

OS:Output:Variable,
  {2885654e-ee9b-4e20-b0ae-2969d41736df}, !- Handle
  Output Variable 30,                     !- Name
  ,                                       !- Key Value
  Zone Ideal Loads Supply Air Total Heating Energy, !- Variable Name
  Hourly;                                 !- Reporting Frequency

OS:Output:Variable,
  {c9297a97-4e45-4f03-8c3b-bbe936589243}, !- Handle
  Output Variable 31,                     !- Name
  ,                                       !- Key Value
  Zone Lights Electricity Energy,         !- Variable Name
  Hourly;                                 !- Reporting Frequency

OS:Output:Variable,
  {b6de15a8-9435-4dac-8ad0-a5f98c53fb63}, !- Handle
  Output Variable 32,                     !- Name
  ,                                       !- Key Value
  Zone Other Equipment Lost Heat Energy,  !- Variable Name
  Hourly;                                 !- Reporting Frequency

OS:Output:Variable,
  {57e3ded7-3dfa-4fb9-abfe-697f5580fae6}, !- Handle
  Output Variable 33,                     !- Name
  ,                                       !- Key Value
  Zone Other Equipment Total Heating Energy, !- Variable Name
  Hourly;                                 !- Reporting Frequency

OS:Output:Variable,
  {1738e993-4acf-4bf8-9a31-1bf256d0a468}, !- Handle
  Output Variable 34,                     !- Name
  ,                                       !- Key Value
  Zone VRF Air Terminal Cooling Electricity Energy, !- Variable Name
  Hourly;                                 !- Reporting Frequency

OS:Output:Variable,
  {cbe1768a-a3a5-4133-981f-99588b5bdcd5}, !- Handle
  Output Variable 35,                     !- Name
  ,                                       !- Key Value
  Zone VRF Air Terminal Heating Electricity Energy, !- Variable Name
  Hourly;                                 !- Reporting Frequency

OS:Output:Variable,
  {df11de9a-66ae-4712-adb7-9cb25441aae4}, !- Handle
  Output Variable 36,                     !- Name
  ,                                       !- Key Value
  Zone Ventilation Fan Electricity Energy, !- Variable Name
  Hourly;                                 !- Reporting Frequency

OS:Output:Table:SummaryReports,
  {753c5213-f316-47f6-a009-623846d13a1c}, !- Handle
  AllSummary;                             !- Report Name 1

OS:YearDescription,
  {b18560e7-605a-4790-a6a8-aacf8f2b532c}, !- Handle
  ,                                       !- Calendar Year
  Sunday,                                 !- Day of Week for Start Day
  ;                                       !- Is Leap Year

OS:ScheduleTypeLimits,
  {e29d5059-005d-49fd-81bc-70cba2fa73eb}, !- Handle
  Temperature,                            !- Name
  -273.15,                                !- Lower Limit Value
  ,                                       !- Upper Limit Value
  Continuous,                             !- Numeric Type
  Temperature;                            !- Unit Type

OS:ScheduleTypeLimits,
  {1625d77d-1ab2-4f6c-ab39-f9a02009d8ab}, !- Handle
  Activity Level,                         !- Name
  0,                                      !- Lower Limit Value
  ,                                       !- Upper Limit Value
  Continuous,                             !- Numeric Type
  ActivityLevel;                          !- Unit Type

OS:ScheduleTypeLimits,
  {b5fb6352-3fe8-4558-b5bd-e5e4021755d3}, !- Handle
  Fractional,                             !- Name
  0,                                      !- Lower Limit Value
  1,                                      !- Upper Limit Value
  Continuous,                             !- Numeric Type
  Dimensionless;                          !- Unit Type

OS:Schedule:Day,
  {e3516cb4-e350-48d9-9390-a7d468961ac3}, !- Handle
  MediumOffice Building_Setpoint_HtgSetp Schedule_SmrDsn, !- Name
  {e29d5059-005d-49fd-81bc-70cba2fa73eb}, !- Schedule Type Limits Name
  No,                                     !- Interpolate to Timestep
  24,                                     !- Hour 1
  0,                                      !- Minute 1
  15.6;                                   !- Value Until Time 1

OS:Schedule:Day,
  {c843e533-aab7-467e-acdb-bac4f0e21216}, !- Handle
  MediumOffice Building_Setpoint_HtgSetp Schedule_WntrDsn, !- Name
  {e29d5059-005d-49fd-81bc-70cba2fa73eb}, !- Schedule Type Limits Name
  No,                                     !- Interpolate to Timestep
  5,                                      !- Hour 1
  0,                                      !- Minute 1
  15.6,                                   !- Value Until Time 1
  6,                                      !- Hour 2
  0,                                      !- Minute 2
  17.6,                                   !- Value Until Time 2
  7,                                      !- Hour 3
  0,                                      !- Minute 3
  19.6,                                   !- Value Until Time 3
  22,                                     !- Hour 4
  0,                                      !- Minute 4
  21,                                     !- Value Until Time 4
  24,                                     !- Hour 5
  0,                                      !- Minute 5
  15.6;                                   !- Value Until Time 5

OS:Schedule:Day,
  {72526d7e-824d-441c-a53a-a15eb6de1a15}, !- Handle
  MediumOffice Building_Setpoint_HtgSetp Schedule_Hol, !- Name
  {e29d5059-005d-49fd-81bc-70cba2fa73eb}, !- Schedule Type Limits Name
  No,                                     !- Interpolate to Timestep
  24,                                     !- Hour 1
  0,                                      !- Minute 1
  15.6;                                   !- Value Until Time 1

OS:Schedule:Day,
  {8610969b-1b3a-465f-a165-0e452a8c267d}, !- Handle
  MediumOffice Building_Setpoint_HtgSetp Schedule_Monday, !- Name
  {e29d5059-005d-49fd-81bc-70cba2fa73eb}, !- Schedule Type Limits Name
  No,                                     !- Interpolate to Timestep
  5,                                      !- Hour 1
  0,                                      !- Minute 1
  15.6,                                   !- Value Until Time 1
  6,                                      !- Hour 2
  0,                                      !- Minute 2
  17.8,                                   !- Value Until Time 2
  7,                                      !- Hour 3
  0,                                      !- Minute 3
  20,                                     !- Value Until Time 3
  22,                                     !- Hour 4
  0,                                      !- Minute 4
  21,                                     !- Value Until Time 4
  24,                                     !- Hour 5
  0,                                      !- Minute 5
  15.6;                                   !- Value Until Time 5

OS:Schedule:Day,
  {36db44e3-1070-4131-8a51-477696614cfd}, !- Handle
  MediumOffice Building_Setpoint_HtgSetp Schedule_Saturday, !- Name
  {e29d5059-005d-49fd-81bc-70cba2fa73eb}, !- Schedule Type Limits Name
  No,                                     !- Interpolate to Timestep
  5,                                      !- Hour 1
  0,                                      !- Minute 1
  15.6,                                   !- Value Until Time 1
  6,                                      !- Hour 2
  0,                                      !- Minute 2
  17.8,                                   !- Value Until Time 2
  7,                                      !- Hour 3
  0,                                      !- Minute 3
  20,                                     !- Value Until Time 3
  17,                                     !- Hour 4
  0,                                      !- Minute 4
  21,                                     !- Value Until Time 4
  24,                                     !- Hour 5
  0,                                      !- Minute 5
  15.6;                                   !- Value Until Time 5

OS:Schedule:Day,
  {97ea9dbb-2b4e-4f0a-bebb-2e76c5198453}, !- Handle
  MediumOffice Building_People_Occ Schedule_SmrDsn, !- Name
  {b5fb6352-3fe8-4558-b5bd-e5e4021755d3}, !- Schedule Type Limits Name
  No,                                     !- Interpolate to Timestep
  6,                                      !- Hour 1
  0,                                      !- Minute 1
  0,                                      !- Value Until Time 1
  22,                                     !- Hour 2
  0,                                      !- Minute 2
  1,                                      !- Value Until Time 2
  24,                                     !- Hour 3
  0,                                      !- Minute 3
  0.05;                                   !- Value Until Time 3

OS:Schedule:Day,
  {d8760413-8526-4f0f-9157-2666f547c646}, !- Handle
  MediumOffice Building_People_Occ Schedule_WntrDsn, !- Name
  {b5fb6352-3fe8-4558-b5bd-e5e4021755d3}, !- Schedule Type Limits Name
  No,                                     !- Interpolate to Timestep
  24,                                     !- Hour 1
  0,                                      !- Minute 1
  0;                                      !- Value Until Time 1

OS:Schedule:Day,
  {5ecb74fd-38dc-46e4-936b-e34d1dc45b11}, !- Handle
  MediumOffice Building_People_Occ Schedule_Hol, !- Name
  {b5fb6352-3fe8-4558-b5bd-e5e4021755d3}, !- Schedule Type Limits Name
  No,                                     !- Interpolate to Timestep
  6,                                      !- Hour 1
  0,                                      !- Minute 1
  0,                                      !- Value Until Time 1
  18,                                     !- Hour 2
  0,                                      !- Minute 2
  0.05,                                   !- Value Until Time 2
  24,                                     !- Hour 3
  0,                                      !- Minute 3
  0;                                      !- Value Until Time 3

OS:Schedule:Day,
  {598493b5-4b7d-4b44-8e60-180db4753879}, !- Handle
  MediumOffice Building_People_Occ Schedule_Monday, !- Name
  {b5fb6352-3fe8-4558-b5bd-e5e4021755d3}, !- Schedule Type Limits Name
  No,                                     !- Interpolate to Timestep
  6,                                      !- Hour 1
  0,                                      !- Minute 1
  0,                                      !- Value Until Time 1
  7,                                      !- Hour 2
  0,                                      !- Minute 2
  0.1,                                    !- Value Until Time 2
  8,                                      !- Hour 3
  0,                                      !- Minute 3
  0.2,                                    !- Value Until Time 3
  12,                                     !- Hour 4
  0,                                      !- Minute 4
  0.95,                                   !- Value Until Time 4
  13,                                     !- Hour 5
  0,                                      !- Minute 5
  0.5,                                    !- Value Until Time 5
  17,                                     !- Hour 6
  0,                                      !- Minute 6
  0.95,                                   !- Value Until Time 6
  18,                                     !- Hour 7
  0,                                      !- Minute 7
  0.3,                                    !- Value Until Time 7
  22,                                     !- Hour 8
  0,                                      !- Minute 8
  0.1,                                    !- Value Until Time 8
  24,                                     !- Hour 9
  0,                                      !- Minute 9
  0.05;                                   !- Value Until Time 9

OS:Schedule:Day,
  {d2cfdc0d-982c-4b72-9455-1b071dc52ccb}, !- Handle
  MediumOffice Building_People_Occ Schedule_Saturday, !- Name
  {b5fb6352-3fe8-4558-b5bd-e5e4021755d3}, !- Schedule Type Limits Name
  No,                                     !- Interpolate to Timestep
  6,                                      !- Hour 1
  0,                                      !- Minute 1
  0,                                      !- Value Until Time 1
  8,                                      !- Hour 2
  0,                                      !- Minute 2
  0.1,                                    !- Value Until Time 2
  12,                                     !- Hour 3
  0,                                      !- Minute 3
  0.3,                                    !- Value Until Time 3
  17,                                     !- Hour 4
  0,                                      !- Minute 4
  0.1,                                    !- Value Until Time 4
  19,                                     !- Hour 5
  0,                                      !- Minute 5
  0.05,                                   !- Value Until Time 5
  24,                                     !- Hour 6
  0,                                      !- Minute 6
  0;                                      !- Value Until Time 6

OS:Schedule:Day,
  {cb36610b-19dc-49c1-a367-ad244bdd7952}, !- Handle
  MediumOffice Building_Service Hot Water Schedule_SmrDsn, !- Name
  ,                                       !- Schedule Type Limits Name
  No,                                     !- Interpolate to Timestep
  6,                                      !- Hour 1
  0,                                      !- Minute 1
  0,                                      !- Value Until Time 1
  7,                                      !- Hour 2
  0,                                      !- Minute 2
  0.07,                                   !- Value Until Time 2
  8,                                      !- Hour 3
  0,                                      !- Minute 3
  0.19,                                   !- Value Until Time 3
  9,                                      !- Hour 4
  0,                                      !- Minute 4
  0.35,                                   !- Value Until Time 4
  10,                                     !- Hour 5
  0,                                      !- Minute 5
  0.38,                                   !- Value Until Time 5